topology_creation/OpenDSS_data/LINES_LV_1.dss
new line.LVN_1_1 bus1=LVN_1_b1 bus2=LVN_1_b220 phases=3 linecode=4c_70 length=7.205290 units=m
new line.LVN_1_2 bus1=LVN_1_b3 bus2=LVN_1_b15 phases=3 linecode=2c_022 length=24.776400 units=m
new line.LVN_1_3 bus1=LVN_1_b15 bus2=LVN_1_b16 phases=3 linecode=4c_70 length=17.563900 units=m
new line.LVN_1_4 bus1=LVN_1_b15 bus2=LVN_1_b19 phases=3 linecode=4c_70 length=6.232560 units=m
new line.LVN_1_5 bus1=LVN_1_b16 bus2=LVN_1_b56 phases=3 linecode=4c_70 length=33.044000 units=m
new line.LVN_1_6 bus1=LVN_1_b16 bus2=LVN_1_b59 phases=3 linecode=4c_70 length=11.009600 units=m
new line.LVN_1_7 bus1=LVN_1_b19 bus2=LVN_1_b24 phases=3 linecode=2c_16 length=6.025020 units=m
new line.LVN_1_8 bus1=LVN_1_b19 bus2=LVN_1_b29 phases=3 linecode=2c_022 length=6.837410 units=m
new line.LVN_1_9 bus1=LVN_1_b30 bus2=LVN_1_b33 phases=3 linecode=2c_022 length=10.955800 units=m
new line.LVN_1_10 bus1=LVN_1_b33 bus2=LVN_1_b38 phases=3 linecode=35_SA length=5.797470 units=m
new line.LVN_1_11 bus1=LVN_1_b33 bus2=LVN_1_b41 phases=3 linecode=4c_70 length=6.633350 units=m
new line.LVN_1_12 bus1=LVN_1_b34 bus2=LVN_1_b36 phases=3 linecode=2c_16 length=10.414600 units=m
new line.LVN_1_13 bus1=LVN_1_b36 bus2=LVN_1_b54 phases=3 linecode=35_SA length=11.579700 units=m
new line.LVN_1_14 bus1=LVN_1_b36 bus2=LVN_1_b70 phases=3 linecode=4c_70 length=8.926990 units=m
new line.LVN_1_15 bus1=LVN_1_b41 bus2=LVN_1_b43 phases=3 linecode=4c_70 length=5.296820 units=m
new line.LVN_1_16 bus1=LVN_1_b41 bus2=LVN_1_b44 phases=3 linecode=2c_16 length=6.591340 units=m
new line.LVN_1_17 bus1=LVN_1_b43 bus2=LVN_1_b56 phases=3 linecode=4c_70 length=7.493200 units=m
new line.LVN_1_18 bus1=LVN_1_b43 bus2=LVN_1_b62 phases=3 linecode=35_SA length=9.314600 units=m
new line.LVN_1_19 bus1=LVN_1_b47 bus2=LVN_1_b51 phases=3 linecode=2c_022 length=10.604300 units=m
new line.LVN_1_20 bus1=LVN_1_b47 bus2=LVN_1_b59 phases=3 linecode=4c_70 length=7.228090 units=m
new line.LVN_1_21 bus1=LVN_1_b47 bus2=LVN_1_b69 phases=3 linecode=2c_022 length=6.274010 units=m
new line.LVN_1_22 bus1=LVN_1_b56 bus2=LVN_1_b121 phases=3 linecode=4c_70 length=55.741900 units=m
new line.LVN_1_23 bus1=LVN_1_b59 bus2=LVN_1_b65 phases=3 linecode=4c_70 length=4.573270 units=m
new line.LVN_1_24 bus1=LVN_1_b65 bus2=LVN_1_b66 phases=3 linecode=4c_70 length=4.720520 units=m
new line.LVN_1_25 bus1=LVN_1_b65 bus2=LVN_1_b74 phases=3 linecode=2c_16 length=8.925990 units=m
new line.LVN_1_26 bus1=LVN_1_b66 bus2=LVN_1_b68 phases=3 linecode=4c_70 length=9.247220 units=m
new line.LVN_1_27 bus1=LVN_1_b66 bus2=LVN_1_b98 phases=3 linecode=35_SA length=11.672300 units=m
new line.LVN_1_28 bus1=LVN_1_b68 bus2=LVN_1_b108 phases=3 linecode=35_SA length=11.698200 units=m
new line.LVN_1_29 bus1=LVN_1_b68 bus2=LVN_1_b116 phases=3 linecode=4c_70 length=11.283300 units=m
new line.LVN_1_30 bus1=LVN_1_b70 bus2=LVN_1_b77 phases=3 linecode=2c_022 length=10.921100 units=m
new line.LVN_1_31 bus1=LVN_1_b70 bus2=LVN_1_b84 phases=3 linecode=4c_70 length=28.232900 units=m
new line.LVN_1_32 bus1=LVN_1_b78 bus2=LVN_1_b81 phases=3 linecode=4c_70 length=20.179300 units=m
new line.LVN_1_33 bus1=LVN_1_b78 bus2=LVN_1_b175 phases=3 linecode=4c_70 length=10.460600 units=m
new line.LVN_1_34 bus1=LVN_1_b78 bus2=LVN_1_b192 phases=3 linecode=4c_70 length=26.839300 units=m
new line.LVN_1_35 bus1=LVN_1_b81 bus2=LVN_1_b84 phases=3 linecode=4c_70 length=20.155200 units=m
new line.LVN_1_36 bus1=LVN_1_b81 bus2=LVN_1_b146 phases=3 linecode=4c_70 length=10.367000 units=m
new line.LVN_1_37 bus1=LVN_1_b84 bus2=LVN_1_b105 phases=3 linecode=4c_70 length=9.018310 units=m
new line.LVN_1_38 bus1=LVN_1_b99 bus2=LVN_1_b102 phases=3 linecode=2c_022 length=9.640960 units=m
new line.LVN_1_39 bus1=LVN_1_b102 bus2=LVN_1_b105 phases=3 linecode=4c_70 length=9.407600 units=m
new line.LVN_1_40 bus1=LVN_1_b102 bus2=LVN_1_b111 phases=3 linecode=2c_16 length=8.539520 units=m
new line.LVN_1_41 bus1=LVN_1_b103 bus2=LVN_1_b105 phases=3 linecode=35_SA length=8.710320 units=m
new line.LVN_1_42 bus1=LVN_1_b116 bus2=LVN_1_b127 phases=3 linecode=2c_16 length=12.261400 units=m
new line.LVN_1_43 bus1=LVN_1_b116 bus2=LVN_1_b145 phases=3 linecode=4c_70 length=9.292570 units=m
new line.LVN_1_44 bus1=LVN_1_b118 bus2=LVN_1_b121 phases=3 linecode=4c_70 length=13.743500 units=m
new line.LVN_1_45 bus1=LVN_1_b118 bus2=LVN_1_b144 phases=3 linecode=4c_70 length=28.552600 units=m
new line.LVN_1_46 bus1=LVN_1_b118 bus2=LVN_1_b195 phases=3 linecode=4c_70 length=20.457600 units=m
new line.LVN_1_47 bus1=LVN_1_b121 bus2=LVN_1_b181 phases=3 linecode=4c_70 length=38.315900 units=m
new line.LVN_1_48 bus1=LVN_1_b128 bus2=LVN_1_b130 phases=3 linecode=35_SA length=8.975190 units=m
new line.LVN_1_49 bus1=LVN_1_b128 bus2=LVN_1_b146 phases=3 linecode=4c_70 length=5.688560 units=m
new line.LVN_1_50 bus1=LVN_1_b128 bus2=LVN_1_b149 phases=3 linecode=2c_022 length=9.598120 units=m
new line.LVN_1_51 bus1=LVN_1_b131 bus2=LVN_1_b135 phases=3 linecode=35_SA length=6.924800 units=m
new line.LVN_1_52 bus1=LVN_1_b131 bus2=LVN_1_b136 phases=3 linecode=2c_16 length=6.097930 units=m
new line.LVN_1_53 bus1=LVN_1_b131 bus2=LVN_1_b144 phases=3 linecode=4c_70 length=15.288700 units=m
new line.LVN_1_54 bus1=LVN_1_b144 bus2=LVN_1_b166 phases=3 linecode=4c_70 length=5.660530 units=m
new line.LVN_1_55 bus1=LVN_1_b145 bus2=LVN_1_b160 phases=3 linecode=2c_022 length=11.667200 units=m
new line.LVN_1_56 bus1=LVN_1_b145 bus2=LVN_1_b163 phases=3 linecode=4c_70 length=13.614200 units=m
new line.LVN_1_57 bus1=LVN_1_b146 bus2=LVN_1_b148 phases=3 linecode=35_SA length=11.419700 units=m
new line.LVN_1_58 bus1=LVN_1_b152 bus2=LVN_1_b154 phases=3 linecode=35_SA length=8.826860 units=m
new line.LVN_1_59 bus1=LVN_1_b152 bus2=LVN_1_b175 phases=3 linecode=4c_70 length=6.980100 units=m
new line.LVN_1_60 bus1=LVN_1_b152 bus2=LVN_1_b179 phases=3 linecode=2c_022 length=13.032400 units=m
new line.LVN_1_61 bus1=LVN_1_b163 bus2=LVN_1_b165 phases=3 linecode=2c_16 length=10.732500 units=m
new line.LVN_1_62 bus1=LVN_1_b163 bus2=LVN_1_b180 phases=3 linecode=4c_70 length=6.052500 units=m
new line.LVN_1_63 bus1=LVN_1_b166 bus2=LVN_1_b167 phases=3 linecode=2c_022 length=6.461280 units=m
new line.LVN_1_64 bus1=LVN_1_b166 bus2=LVN_1_b174 phases=3 linecode=35_SA length=7.939710 units=m
new line.LVN_1_65 bus1=LVN_1_b175 bus2=LVN_1_b183 phases=3 linecode=2c_022 length=11.482200 units=m
new line.LVN_1_66 bus1=LVN_1_b180 bus2=LVN_1_b188 phases=3 linecode=35_SA length=12.327800 units=m
new line.LVN_1_67 bus1=LVN_1_b180 bus2=LVN_1_b189 phases=3 linecode=4c_70 length=9.949010 units=m
new line.LVN_1_68 bus1=LVN_1_b181 bus2=LVN_1_b236 phases=3 linecode=4c_70 length=8.282170 units=m
new line.LVN_1_69 bus1=LVN_1_b181 bus2=LVN_1_b237 phases=3 linecode=4c_70 length=22.380100 units=m
new line.LVN_1_70 bus1=LVN_1_b181 bus2=LVN_1_b319 phases=3 linecode=4c_70 length=65.585100 units=m
new line.LVN_1_71 bus1=LVN_1_b189 bus2=LVN_1_b191 phases=3 linecode=2c_022 length=8.117830 units=m
new line.LVN_1_72 bus1=LVN_1_b189 bus2=LVN_1_b206 phases=3 linecode=2c_022 length=11.677000 units=m
new line.LVN_1_73 bus1=LVN_1_b192 bus2=LVN_1_b220 phases=3 linecode=4c_70 length=27.936000 units=m
new line.LVN_1_74 bus1=LVN_1_b192 bus2=LVN_1_b227 phases=3 linecode=4c_70 length=58.003900 units=m
new line.LVN_1_75 bus1=LVN_1_b193 bus2=LVN_1_b195 phases=3 linecode=4c_70 length=17.732900 units=m
new line.LVN_1_76 bus1=LVN_1_b193 bus2=LVN_1_b210 phases=3 linecode=4c_70 length=10.856400 units=m
new line.LVN_1_77 bus1=LVN_1_b193 bus2=LVN_1_b219 phases=3 linecode=4c_70 length=17.131100 units=m
new line.LVN_1_78 bus1=LVN_1_b195 bus2=LVN_1_b196 phases=3 linecode=4c_70 length=10.129300 units=m
new line.LVN_1_79 bus1=LVN_1_b196 bus2=LVN_1_b200 phases=3 linecode=35_SA length=4.395530 units=m
new line.LVN_1_80 bus1=LVN_1_b196 bus2=LVN_1_b205 phases=3 linecode=35_SA length=4.659030 units=m
new line.LVN_1_81 bus1=LVN_1_b210 bus2=LVN_1_b214 phases=3 linecode=2c_16 length=5.701400 units=m
new line.LVN_1_82 bus1=LVN_1_b210 bus2=LVN_1_b218 phases=3 linecode=35_SA length=5.049150 units=m
new line.LVN_1_83 bus1=LVN_1_b219 bus2=LVN_1_b220 phases=3 linecode=4c_70 length=17.892700 units=m
new line.LVN_1_84 bus1=LVN_1_b219 bus2=LVN_1_b232 phases=3 linecode=4c_70 length=7.771510 units=m
new line.LVN_1_85 bus1=LVN_1_b227 bus2=LVN_1_b266 phases=3 linecode=4c_70 length=6.637250 units=m
new line.LVN_1_86 bus1=LVN_1_b227 bus2=LVN_1_b307 phases=3 linecode=4c_70 length=40.102700 units=m
new line.LVN_1_87 bus1=LVN_1_b228 bus2=LVN_1_b232 phases=3 linecode=2c_16 length=4.440030 units=m
new line.LVN_1_88 bus1=LVN_1_b232 bus2=LVN_1_b235 phases=3 linecode=2c_16 length=3.520100 units=m
new line.LVN_1_89 bus1=LVN_1_b236 bus2=LVN_1_b242 phases=3 linecode=2c_022 length=8.789840 units=m
new line.LVN_1_90 bus1=LVN_1_b236 bus2=LVN_1_b243 phases=3 linecode=4c_70 length=6.541020 units=m
new line.LVN_1_91 bus1=LVN_1_b237 bus2=LVN_1_b247 phases=3 linecode=4c_70 length=14.067100 units=m
new line.LVN_1_92 bus1=LVN_1_b237 bus2=LVN_1_b294 phases=3 linecode=4c_70 length=78.080700 units=m
new line.LVN_1_93 bus1=LVN_1_b243 bus2=LVN_1_b244 phases=3 linecode=2c_16 length=8.306210 units=m
new line.LVN_1_94 bus1=LVN_1_b243 bus2=LVN_1_b255 phases=3 linecode=4c_70 length=6.041190 units=m
new line.LVN_1_95 bus1=LVN_1_b246 bus2=LVN_1_b247 phases=3 linecode=4c_70 length=7.715360 units=m
new line.LVN_1_96 bus1=LVN_1_b246 bus2=LVN_1_b248 phases=3 linecode=2c_022 length=19.454300 units=m
new line.LVN_1_97 bus1=LVN_1_b246 bus2=LVN_1_b253 phases=3 linecode=2c_022 length=12.418900 units=m
new line.LVN_1_98 bus1=LVN_1_b247 bus2=LVN_1_b259 phases=3 linecode=2c_16 length=14.890200 units=m
new line.LVN_1_99 bus1=LVN_1_b254 bus2=LVN_1_b255 phases=3 linecode=2c_16 length=8.170260 units=m
new line.LVN_1_100 bus1=LVN_1_b255 bus2=LVN_1_b256 phases=3 linecode=4c_70 length=7.951650 units=m
new line.LVN_1_101 bus1=LVN_1_b256 bus2=LVN_1_b265 phases=3 linecode=35_SA length=7.863440 units=m
new line.LVN_1_102 bus1=LVN_1_b256 bus2=LVN_1_b276 phases=3 linecode=4c_70 length=4.768560 units=m
new line.LVN_1_103 bus1=LVN_1_b266 bus2=LVN_1_b277 phases=3 linecode=35_SA length=4.434050 units=m
new line.LVN_1_104 bus1=LVN_1_b266 bus2=LVN_1_b281 phases=3 linecode=35_SA length=8.951940 units=m
new line.LVN_1_105 bus1=LVN_1_b276 bus2=LVN_1_b282 phases=3 linecode=4c_70 length=5.576320 units=m
new line.LVN_1_106 bus1=LVN_1_b276 bus2=LVN_1_b285 phases=3 linecode=35_SA length=10.201300 units=m
new line.LVN_1_107 bus1=LVN_1_b282 bus2=LVN_1_b289 phases=3 linecode=4c_70 length=3.588800 units=m
new line.LVN_1_108 bus1=LVN_1_b282 bus2=LVN_1_b312 phases=3 linecode=35_SA length=9.301530 units=m
new line.LVN_1_109 bus1=LVN_1_b286 bus2=LVN_1_b287 phases=3 linecode=2c_16 length=6.240610 units=m
new line.LVN_1_110 bus1=LVN_1_b286 bus2=LVN_1_b290 phases=3 linecode=2c_16 length=10.489000 units=m
new line.LVN_1_111 bus1=LVN_1_b286 bus2=LVN_1_b294 phases=3 linecode=4c_70 length=7.057580 units=m
new line.LVN_1_112 bus1=LVN_1_b288 bus2=LVN_1_b289 phases=3 linecode=2c_022 length=8.060150 units=m
new line.LVN_1_113 bus1=LVN_1_b289 bus2=LVN_1_b305 phases=3 linecode=4c_70 length=6.418580 units=m
new line.LVN_1_114 bus1=LVN_1_b294 bus2=LVN_1_b298 phases=3 linecode=35_SA length=11.811300 units=m
new line.LVN_1_115 bus1=LVN_1_b299 bus2=LVN_1_b300 phases=3 linecode=2c_022 length=7.731700 units=m
new line.LVN_1_116 bus1=LVN_1_b300 bus2=LVN_1_b304 phases=3 linecode=2c_16 length=11.837900 units=m
new line.LVN_1_117 bus1=LVN_1_b300 bus2=LVN_1_b313 phases=3 linecode=4c_70 length=8.673790 units=m
new line.LVN_1_118 bus1=LVN_1_b305 bus2=LVN_1_b306 phases=3 linecode=35_SA length=7.981640 units=m
new line.LVN_1_119 bus1=LVN_1_b305 bus2=LVN_1_b317 phases=3 linecode=2c_022 length=12.636400 units=m
new line.LVN_1_120 bus1=LVN_1_b307 bus2=LVN_1_b313 phases=3 linecode=4c_70 length=9.323650 units=m
new line.LVN_1_121 bus1=LVN_1_b307 bus2=LVN_1_b325 phases=3 linecode=4c_70 length=20.155200 units=m
new line.LVN_1_122 bus1=LVN_1_b313 bus2=LVN_1_b322 phases=3 linecode=35_SA length=6.166010 units=m
new line.LVN_1_123 bus1=LVN_1_b319 bus2=LVN_1_b355 phases=3 linecode=4c_70 length=8.569230 units=m
new line.LVN_1_124 bus1=LVN_1_b319 bus2=LVN_1_b361 phases=3 linecode=2c_16 length=14.725100 units=m
new line.LVN_1_125 bus1=LVN_1_b325 bus2=LVN_1_b328 phases=3 linecode=4c_70 length=20.155200 units=m
new line.LVN_1_126 bus1=LVN_1_b325 bus2=LVN_1_b344 phases=3 linecode=4c_70 length=9.018310 units=m
new line.LVN_1_127 bus1=LVN_1_b328 bus2=LVN_1_b334 phases=3 linecode=4c_70 length=28.541500 units=m
new line.LVN_1_128 bus1=LVN_1_b328 bus2=LVN_1_b350 phases=3 linecode=4c_70 length=7.607770 units=m
new line.LVN_1_129 bus1=LVN_1_b334 bus2=LVN_1_b337 phases=3 linecode=35_SA length=7.596460 units=m
new line.LVN_1_130 bus1=LVN_1_b334 bus2=LVN_1_b376 phases=3 linecode=4c_70 length=6.980100 units=m
new line.LVN_1_131 bus1=LVN_1_b338 bus2=LVN_1_b339 phases=3 linecode=2c_16 length=8.152050 units=m
new line.LVN_1_132 bus1=LVN_1_b339 bus2=LVN_1_b343 phases=3 linecode=35_SA length=12.504000 units=m
new line.LVN_1_133 bus1=LVN_1_b339 bus2=LVN_1_b344 phases=3 linecode=4c_70 length=6.272990 units=m
new line.LVN_1_134 bus1=LVN_1_b344 bus2=LVN_1_b345 phases=3 linecode=35_SA length=5.359380 units=m
new line.LVN_1_135 bus1=LVN_1_b346 bus2=LVN_1_b349 phases=3 linecode=2c_16 length=9.418820 units=m
new line.LVN_1_136 bus1=LVN_1_b349 bus2=LVN_1_b350 phases=3 linecode=4c_70 length=8.433870 units=m
new line.LVN_1_137 bus1=LVN_1_b349 bus2=LVN_1_b374 phases=3 linecode=2c_022 length=8.864710 units=m
new line.LVN_1_138 bus1=LVN_1_b350 bus2=LVN_1_b375 phases=3 linecode=2c_16 length=5.224730 units=m
new line.LVN_1_139 bus1=LVN_1_b351 bus2=LVN_1_b354 phases=3 linecode=2c_022 length=6.423840 units=m
new line.LVN_1_140 bus1=LVN_1_b351 bus2=LVN_1_b366 phases=3 linecode=4c_70 length=2.779740 units=m
new line.LVN_1_141 bus1=LVN_1_b351 bus2=LVN_1_b367 phases=3 linecode=2c_022 length=6.097140 units=m
new line.LVN_1_142 bus1=LVN_1_b355 bus2=LVN_1_b357 phases=3 linecode=2c_022 length=8.846340 units=m
new line.LVN_1_143 bus1=LVN_1_b355 bus2=LVN_1_b362 phases=3 linecode=4c_70 length=4.191830 units=m
new line.LVN_1_144 bus1=LVN_1_b362 bus2=LVN_1_b366 phases=3 linecode=4c_70 length=4.709520 units=m
new line.LVN_1_145 bus1=LVN_1_b362 bus2=LVN_1_b371 phases=3 linecode=2c_022 length=8.965260 units=m
new line.LVN_1_146 bus1=LVN_1_b363 bus2=LVN_1_b366 phases=3 linecode=35_SA length=9.553620 units=m
new line.LVN_1_147 bus1=LVN_1_b376 bus2=LVN_1_b379 phases=3 linecode=2c_16 length=7.611120 units=m
new line.LVN_1_148 bus1=LVN_1_b376 bus2=LVN_1_b382 phases=3 linecode=2c_16 length=8.400140 units=m
